OPT_V10/Two_days_MCY3_MIQCPM1/powerflow_results_t35.txt
Pandapower Network Debug Info
==================================================

BUS:
       vm_pu  va_degree      p_mw    q_mvar
0   0.998374   0.402028 -0.001902  0.001173
1   0.997650   0.660029 -0.002222  0.002168
2   0.996082   0.852019 -0.000715  0.003124
3   0.996334   0.582215 -0.000384  0.004386
4   0.999911   0.001924  0.007042  0.010221
5   0.999899   0.002032  0.007240  0.009065
6   0.999890   0.002090  0.010918  0.010582
7   0.999948   0.001471  0.000000  0.000000
8   0.999948   0.001477  0.000000  0.000000
9   1.000000   0.000000 -0.020115 -0.045808
10  1.000000   0.000006  0.000000  0.000000
--------------------------------------------------

LINE:
   p_from_mw  q_from_mvar   p_to_mw  q_to_mvar         pl_mw       ql_mvar  i_from_ka   i_to_ka      i_ka  vm_from_pu  va_from_degree  vm_to_pu  va_to_degree  loading_percent
0   0.020105     0.041808 -0.020103  -0.041806  2.105078e-06  1.641364e-06   0.001786  0.001786  0.001786    1.000000        0.000006  0.999948      0.001471         0.776346
1   0.025203     0.029869 -0.025201  -0.029868  1.181175e-06  9.209817e-07   0.001504  0.001504  0.001504    0.999948        0.001471  0.999911      0.001924         0.654046
2  -0.005109     0.010938  0.005178  -0.010885  6.817238e-05  5.315513e-05   0.017426  0.017426  0.017426    0.999948        0.001477  0.998374      0.402028         7.576394
3  -0.018159    -0.019647  0.018159   0.019647  2.475733e-07  1.930370e-07   0.001030  0.001030  0.001030    0.999899        0.002032  0.999911      0.001924         0.447760
4  -0.010918    -0.010582  0.010918   0.010582  1.130915e-07  8.817933e-08   0.000585  0.000585  0.000585    0.999890        0.002090  0.999899      0.002032         0.254479
5   0.002927    -0.005298 -0.002906   0.005315  2.178095e-05  1.698296e-05   0.008758  0.008758  0.008758    0.997650        0.660029  0.998374      0.402028         3.807735
6   0.000384    -0.004386 -0.000370   0.004396  1.303866e-05  1.016646e-05   0.006378  0.006378  0.006378    0.996334        0.582215  0.998374      0.402028         2.773208
7   0.000715    -0.003124 -0.000706   0.003131  9.361413e-06  7.299248e-06   0.004643  0.004643  0.004643    0.996082        0.852019  0.997650      0.660029         2.018810
--------------------------------------------------

TRAFO:
    p_hv_mw  q_hv_mvar   p_lv_mw  q_lv_mvar    pl_mw  ql_mvar   i_hv_ka   i_lv_ka  vm_hv_pu  va_hv_degree  vm_lv_pu  va_lv_degree  loading_percent
0 -0.005099   0.011938  0.005109  -0.010938  0.00001    0.001  0.000500  0.017426  0.999948      0.001471  0.999948      0.001477         0.129818
1  0.020115   0.045808 -0.020105  -0.041808  0.00001    0.004  0.000413  0.001786  1.000000      0.000000  1.000000      0.000006         0.125075
--------------------------------------------------
